
Circuit: .options savecurrents

Doing analysis at TEMP = 27.000000 and TNOM = 27.000000


No. of Data Rows : 1
OP_TAB
vce = 7.969251e+00
vbe = 6.986238e-01
vo1 = 8.654746e+00
vec = 9.397377e+00
veb = 7.426318e-01
vo2 = 9.397377e+00
OP_END
Doing analysis at TEMP = 27.000000 and TNOM = 27.000000


No. of Data Rows : 71

The file "vo1f.ps" may be printed on a postscript printer.
vo1f_FIG

The file "vo2f.ps" may be printed on a postscript printer.
vo2f_FIG
lco                 =  7.923603e+00
uco                 =  3.106930e+06
data_TAB
abs(zin1) = 7.664021e+02
abs(gain) = 5.604104e+01
data_END
freq_TAB
uco = 3.106930e+06
lco = 7.923603e+00
bandwith = 3.106922e+06
freq_END
merit_TAB
cost = 8.116008e+03
merit = 2.707518e+03
merit_END
ngspice-31 done
