
Circuit: circuito output impedance

Doing analysis at TEMP = 27.000000 and TNOM = 27.000000


No. of Data Rows : 71
out_imp_TAB
zout = 4.496054e+00
out_imp_END
ngspice-31 done
